data_image0
_cell_length_a       14.984
_cell_length_b       14.9823
_cell_length_c       100
_cell_angle_alpha    90
_cell_angle_beta     90
_cell_angle_gamma    60

_symmetry_space_group_name_H-M    P 1
_symmetry_int_tables_number       1

loop_
  _symmetry_equiv_pos_as_xyz
  'x, y, z'

loop_
  _atom_site_label
  _atom_site_occupancy
  _atom_site_fract_x
  _atom_site_fract_y
  _atom_site_fract_z
  _atom_site_thermal_displace_type
  _atom_site_B_iso_or_equiv
  _atom_site_type_symbol
  C1       1.0000 0.82811  0.62964  0.00135  Biso   1.000  C
  C2       1.0000 0.71976  0.68503  0.00163  Biso   1.000  C
  C3       1.0000 0.88029  0.68582  0.00126  Biso   1.000  C
  C4       1.0000 0.66536  0.79276  0.00178  Biso   1.000  C
  H1       1.0000 0.68156  0.63861  0.00170  Biso   1.000  H
  C5       1.0000 0.82592  0.79351  0.00143  Biso   1.000  C
  H2       1.0000 0.96493  0.64005  0.00103  Biso   1.000  H
  C6       1.0000 0.71761  0.84894  0.00165  Biso   1.000  C
  H3       1.0000 0.58069  0.83801  0.00199  Biso   1.000  H
  H4       1.0000 0.86358  0.84042  0.00134  Biso   1.000  H
  C7       1.0000 0.83011  0.29301  0.00124  Biso   1.000  C
  C8       1.0000 0.88290  0.18461  0.00111  Biso   1.000  C
  C9       1.0000 0.72179  0.34540  0.00153  Biso   1.000  C
  C10      1.0000 0.82932  0.13048  0.00127  Biso   1.000  C
  H5       1.0000 0.96748  0.14624  0.00086  Biso   1.000  H
  C11      1.0000 0.66824  0.29128  0.00168  Biso   1.000  C
  H6       1.0000 0.68325  0.43003  0.00161  Biso   1.000  H
  C12      1.0000 0.72092  0.18293  0.00153  Biso   1.000  C
  H7       1.0000 0.86832  0.04578  0.00116  Biso   1.000  H
  H8       1.0000 0.58365  0.32931  0.00190  Biso   1.000  H
  C13      1.0000 0.16452  0.29518  0.00040  Biso   1.000  C
  C14      1.0000 0.22009  0.34802  0.00043  Biso   1.000  C
  C15      1.0000 0.22060  0.18682  0.00036  Biso   1.000  C
  C16      1.0000 0.32780  0.29453  0.00059  Biso   1.000  C
  H9       1.0000 0.17392  0.43269  0.00031  Biso   1.000  H
  C17      1.0000 0.32828  0.13335  0.00052  Biso   1.000  C
  H10      1.0000 0.17478  0.14797  0.00019  Biso   1.000  H
  C18      1.0000 0.38385  0.18611  0.00072  Biso   1.000  C
  H11      1.0000 0.37320  0.33380  0.00066  Biso   1.000  H
  H12      1.0000 0.37483  0.04875  0.00055  Biso   1.000  H
  B1       1.0000 0.04885  0.35252  0.00059  Biso   1.000  B
  B2       1.0000 0.88640  0.51395  0.00114  Biso   1.000  B
  B3       1.0000 0.88746  0.35135  0.00107  Biso   1.000  B
  O1       1.0000 0.99366  0.45980  0.00080  Biso   1.000  O
  O2       1.0000 0.99472  0.29936  0.00074  Biso   1.000  O
  O3       1.0000 0.83439  0.45867  0.00126  Biso   1.000  O
  O4       1.0000 0.71407  0.01845  0.00177  Biso   1.000  O
  O5       1.0000 0.55333  0.02030  0.00126  Biso   1.000  O
  B4       1.0000 0.66056  0.96464  0.00159  Biso   1.000  B
  B5       1.0000 0.49951  0.12759  0.00105  Biso   1.000  B
  B6       1.0000 0.66245  0.12573  0.00152  Biso   1.000  B
  O6       1.0000 0.55516  0.17922  0.00120  Biso   1.000  O
